LTspice 24.0.12 for Windows
Circuit: * C:\Users\hop\Desktop\Proiect_SCIA_SolcanLazarAlexandru\Draft1.asc
Start Time: Sun Jan  5 11:29:04 2025
solver = Normal
Maximum thread count: 12
tnom = 27
temp = 27
method = modified trap
Direct Newton iteration for .op point succeeded.
Total elapsed time: 0.036 seconds.

