LTspice 24.0.12 for Windows
Circuit: * C:\Users\hop\Desktop\Proiect_SCIA_SolcanLazarAlexandru\Draft3.asc
Start Time: Sat Jan  4 18:31:50 2025
solver = Normal
Maximum thread count: 12
tnom = 27
temp = 27
method = modified trap
WARNING: Less than two connections to node nc_01.  This node is used by r:u1:2.
WARNING: Less than two connections to node va.  This node is used by v3.
WARNING: Less than two connections to node vb.  This node is used by v4.
Direct Newton iteration for .op point succeeded.
N-Period=1
Fourier components of V(vo)
DC component:0.00351634

Harmonic	Frequency	 Fourier 	Normalized	 Phase  	Normalized
 Number 	  [Hz]   	Component	 Component	[degree]	Phase [deg]
    1   	 1.000e+4	 1.106e+0	 1.000e+0	   96.83°	    0.00°
    2   	 2.000e+4	 2.335e-4	 2.111e-4	  126.10°	   29.28°
    3   	 3.000e+4	 4.642e-4	 4.197e-4	   78.35°	  -18.48°
    4   	 4.000e+4	 2.298e-4	 2.078e-4	 -107.12°	 -203.95°
    5   	 5.000e+4	 8.732e-4	 7.895e-4	  -65.73°	 -162.56°
    6   	 6.000e+4	 2.125e-4	 1.921e-4	   18.10°	  -78.73°
    7   	 7.000e+4	 5.814e-4	 5.257e-4	  131.41°	   34.58°
    8   	 8.000e+4	 2.067e-4	 1.869e-4	  142.77°	   45.95°
    9   	 9.000e+4	 1.420e-4	 1.284e-4	  -99.64°	 -196.47°
Partial Harmonic Distortion: 0.111884%
Total Harmonic Distortion:   0.132074%


Total elapsed time: 0.337 seconds.

