LTspice 24.0.12 for Windows
Circuit: * C:\Users\hop\Desktop\Proiect_SCIA_SolcanLazarAlexandru\Et1_Circuit+simulari.asc
Start Time: Sat Jan 11 14:50:27 2025
solver = Normal
Maximum thread count: 12
tnom = 27
temp = 27
method = modified trap
WARNING: Less than two connections to node nc_01.  This node is used by r:u1:2.
WARNING: Less than two connections to node vaa.  This node is used by v5.
WARNING: Less than two connections to node vbb.  This node is used by v6.
WARNING: Less than two connections to node va2.  This node is used by v7.
WARNING: Less than two connections to node vb2.  This node is used by v8.
Direct Newton iteration for .op point succeeded.
Semiconductor Device Operating Points:
                        --- Diodes ---
Name:    d:u1:1      d:u1:2      d:u1:4      d:u1:3      d:u2:1
Model:    u1:do       u1:do       u1:do       u1:do       u2:do
Id:      1.50e-11    1.10e-11    1.44e-11    1.43e-11    1.50e-11
Vd:      1.50e+01    1.10e+01    1.44e+01    1.43e+01    1.50e+01
Req:     1.00e-12    1.00e-12    1.00e-12    1.00e-12    1.00e-12
CAP:     0.00e+00    0.00e+00    0.00e+00    0.00e+00    0.00e+00

Name:    d:u2:2      d:u2:4      d:u2:3
Model:    u2:do       u2:do       u2:do
Id:      1.10e-11    1.32e-11    1.55e-11
Vd:      1.10e+01    1.32e+01    1.54e+01
Req:     1.00e-12    1.00e-12    1.00e-12
CAP:     0.00e+00    0.00e+00    0.00e+00


Total elapsed time: 0.038 seconds.

