LTspice 24.0.12 for Windows
Circuit: * C:\Users\hop\Desktop\Proiect_SCIA_SolcanLazarAlexandru\Et_1_PROIECT.asc
Start Time: Sat Jan  4 18:07:15 2025
solver = Normal
Maximum thread count: 12
tnom = 27
temp = 27
method = modified trap
WARNING: Less than two connections to node vaa.  This node is used by v5.
WARNING: Less than two connections to node vbb.  This node is used by v6.
Direct Newton iteration failed to find .op point.  (Use ".option noopiter" to skip.)
Starting Gmin stepping
Gmin = 10
Gmin = 1.07374
Gmin = 0.115292
Gmin = 0.0123794
Gmin = 0.00132923
Gmin = 0.000142725
Gmin = 1.5325e-05
Gmin = 1.6455e-06
Gmin = 1.76685e-07
Gmin = 1.89714e-08
Gmin = 2.03704e-09
Gmin = 2.18725e-10
Gmin = 2.34854e-11
Gmin = 2.52173e-12
Gmin = 2.70769e-13
Gmin = 0
Gmin stepping succeeded in finding the operating point.

Semiconductor Device Operating Points:
                        --- Diodes ---
Name:    d:u2:1      d:u2:2      d:u2:4      d:u2:3      d:u1:1
Model:    u2:do       u2:do       u2:do       u2:do       u1:do
Id:      1.50e-11    1.10e-11    1.37e-11    1.49e-11    1.50e-11
Vd:      1.50e+01    1.10e+01    1.37e+01    1.49e+01    1.50e+01
Req:     1.00e-12    1.00e-12    1.00e-12    1.00e-12    1.00e-12
CAP:     0.00e+00    0.00e+00    0.00e+00    0.00e+00    0.00e+00

Name:    d:u1:2      d:u1:4      d:u1:3      d:u3:1      d:u3:2
Model:    u1:do       u1:do       u1:do       u3:do       u3:do
Id:      1.10e-11    1.43e-11    1.00e-11    1.50e-11    1.10e-11
Vd:      1.10e+01    1.43e+01    1.00e+01    1.50e+01    1.10e+01
Req:     1.00e-12    1.00e-12    1.00e-12    1.00e-12    1.00e-12
CAP:     0.00e+00    0.00e+00    0.00e+00    0.00e+00    0.00e+00

Name:    d:u3:4      d:u3:3      d:u4:1      d:u4:2      d:u4:4
Model:    u3:do       u3:do       u4:do       u4:do       u4:do
Id:      1.43e-11    1.44e-11    1.50e-11    1.10e-11    1.40e-11
Vd:      1.43e+01    1.44e+01    1.50e+01    1.10e+01    1.40e+01
Req:     1.00e-12    1.00e-12    1.00e-12    1.00e-12    1.00e-12
CAP:     0.00e+00    0.00e+00    0.00e+00    0.00e+00    0.00e+00

Name:    d:u4:3      d:u5:1      d:u5:2      d:u5:4      d:u5:3
Model:    u4:do       u5:do       u5:do       u5:do       u5:do
Id:      1.43e-11    1.50e-11    1.10e-11    1.43e-11    1.44e-11
Vd:      1.43e+01    1.50e+01    1.10e+01    1.43e+01    1.44e+01
Req:     1.00e-12    1.00e-12    1.00e-12    1.00e-12    1.00e-12
CAP:     0.00e+00    0.00e+00    0.00e+00    0.00e+00    0.00e+00

Name:    d:u6:1      d:u6:2      d:u6:4      d:u6:3      d:u7:1
Model:    u6:do       u6:do       u6:do       u6:do       u7:do
Id:      1.50e-11    1.10e-11    1.40e-11    1.43e-11    1.50e-11
Vd:      1.50e+01    1.10e+01    1.40e+01    1.43e+01    1.50e+01
Req:     1.00e-12    1.00e-12    1.00e-12    1.00e-12    1.00e-12
CAP:     0.00e+00    0.00e+00    0.00e+00    0.00e+00    0.00e+00

Name:    d:u7:2      d:u7:4      d:u7:3      d:u8:1      d:u8:2
Model:    u7:do       u7:do       u7:do       u8:do       u8:do
Id:      1.10e-11    1.43e-11    1.44e-11    1.50e-11    1.10e-11
Vd:      1.10e+01    1.43e+01    1.44e+01    1.50e+01    1.10e+01
Req:     1.00e-12    1.00e-12    1.00e-12    1.00e-12    1.00e-12
CAP:     0.00e+00    0.00e+00    0.00e+00    0.00e+00    0.00e+00

Name:    d:u8:4      d:u8:3
Model:    u8:do       u8:do
Id:      1.40e-11    1.43e-11
Vd:      1.40e+01    1.43e+01
Req:     1.00e-12    1.00e-12
CAP:     0.00e+00    0.00e+00


Total elapsed time: 0.281 seconds.

