LTspice 24.0.12 for Windows
Circuit: * C:\Users\solx\Desktop\Proiect_SCIA_SolcanLazarAlexandru\Proiect_SCIA_SolcanLazarAlexandru\Et_1_CMRR+PSRR.asc
Start Time: Tue Jan 14 08:40:14 2025
solver = Normal
Maximum thread count: 8
tnom = 27
temp = 27
method = modified trap
WARNING: Less than two connections to node vaa.  This node is used by v1.
WARNING: Less than two connections to node vbb.  This node is used by v2.
WARNING: Less than two connections to node va.  This node is used by v5.
WARNING: Less than two connections to node vb.  This node is used by v6.
Direct Newton iteration for .op point succeeded.

ad: v(outd)=(-37.67dB,179.957°) at 1
acm: v(outcm)=(20.821dB,179.999°) at 1
cmrr: (v(outd)/v(outcm))=(-58.491dB,-0.0422427°) at 1
aps: v(outps)=(20.8011dB,-0.000552932°) at 1
psrr: (v(outd)/v(outps))=(-58.4712dB,179.958°) at 1
outd_max: MAX(mag(v(outd)))=(-4.4748dB,0°) FROM 0.01 TO 5e+06

Measurement "bw" FAIL'ed

Total elapsed time: 0.184 seconds.

