LTspice 24.0.12 for Windows
Circuit: * C:\Users\solx\Desktop\Proiect_SCIA_SolcanLazarAlexandru\Proiect_SCIA_SolcanLazarAlexandru\Etaj3.asc
Start Time: Tue Jan 14 00:19:35 2025
solver = Normal
Maximum thread count: 8
tnom = 27
temp = 27
method = modified trap
WARNING: Less than two connections to node vinac.  This node is used by v8.
WARNING: Less than two connections to node vin2.  This node is used by v9.
Direct Newton iteration for .op point succeeded.
Total elapsed time: 0.275 seconds.

